/ Infinite bus  
/1000 'GENCLS'  1  999.0  0.0/
 1000  'USRMDL' 1 'PLBVFU1' 1 1 3 4 3 6 1 1 'zingen1' 1.0 50 0.02 0.02 /

/ Sungrow inverter model
1 'USRMDL' 1 'SG3400HV' 101 1 1 46 17 30 
1
164.98 48 3.437 50 0.6 
0.85 3.0 1.15 3.0 3.0 1.05 0.15 0.02 1
1.0 0.0 3 3 0 51 40 1 1.0 -1.0
0 0.04 0 0 0
1 
0.7 10 0.6 2
1.4 0.2 1.3 2
46 2 48.5 120
53 2 51.5 120 /

1 'USRMDL' 1 'INACES'  107 0 12 34 7 61 1011 1001 1011 1  1  2  1  1  1  0  0 0 
0.0025 0.02 -0.0001 0.0001 0.02 0.5 0.3 0.2 0.1 -0.1 0.02 0 1.0 0.2 5.0 0.01 2.0  
0.25 0.25 -0.15 0.15 0.01 0.5  0.02 -0.5 0.5 0.85 1.15 1.0 0.005 0.04 0.5 0.5 -0.5/

