/********** GENSAE based on ABB data  --- OK
  1200 'GENSAE' 1      12.177       0.49000E-01  0.14900       7.3900
         0.0000       2.1370      0.80000      0.26500       0.16900
         0.12300      0.0000      0.0000    /
/  1200 'AC8B' 1
/         0.30000E-01    1.6300       0.82000       0.82000
/         0.13780        1.0000        0.0000        27.800
/         0.10000E-01    27.800        0.0000       0.70000
/         0.90000        1.0000       0.97000        16.730
/         0.0000         6.5000       0.30000        9.0000
/         3.0000      /
/  1200 'IEEEVC' 1     0.0020      2.137  /
/  
  1130 'USRMDL' 1 'PLBVFU1' 1 1 3 4 3 6 1 1 'zingen1' 1.0 50 0.02 0.02 /


//////// POWER ELECTRONICS POWER PLANT CONROLER
   1180    'USRMDL' 1  'PEPPC_H1006D' 103 0 13 60 11 450
         1150 1150 1140 1 1 0 1 0 0 1 0 1180 1181
         1.000  0.200  0.866 -0.866  1.000  0.300  1.000  0.300
         50.00  0.000  0.100
         0.920  0.970  1.030  1.080  0.300  0.000 -0.300
         53.00  5.000  47.00  5.000  51.00  5.000  49.00  5.000
         0.100  0.800  0.050  1.200  0.050
         0.020  0.020  0.020  0.200  0.100  0.100
         1.000  1.000
         5.000  5.000  5.000  5.000
         2.000  2.000  0.120  0.100  0.500  0.010  100.0  10.00  10.00  0.000
         2.000  10.00  1.000  0.000  0.000  0.000  0.050/


//////// ELECTRICAL INTERFACE WITH PSS/E GRID 
   1180    'USRMDL' 1  'PEGEN_H1006D' 101 1 4 61 2 70
         11111 11111 11111 11111
         0.890  6550   0.800  10.00  0.400  2.000  0.000  0.500  0.000  0.500
         1.110  6550   1.200  1.000  1.280  0.200  1.300  0.060  1.300  0.060
         49.40  6550   48.50  650.0  46.50  160.0  45.00  65.50  45.00  65.50
         50.60  6550   51.50  650.0  52.50  160.0  65.00  65.50  65.00  65.50
         50
         0.400  0.050  0.100  0.200  4.000  2.000  0.850  0.900  0.015  0.002
         0.200  0.100  0.000  0.020  0.020  0.000  0.000  0.000  0.000  0.000/
//////// CONROL MODEL 
   1180    'USRMDL' 1  'PECON_H1006D' 102 0 5 37 7 50
         1 1 2 1 0
         1.000  0.866 -0.866  1.000
         0.850  2.000  0.050  0.880
         1.200  2.000  0.050  1.200
         1.000  2.000  1.000  2.000  10.00
         0.020  0.020  0.020  0.010  0.050  1.000  0.010  1.100  1.000  0.800
         0.800  0.000  0.000  0.000  0.000  0.000  0.000  0.000  0.000  0.000/



//////// ELECTRICAL INTERFACE WITH PSS/E GRID 
   1181    'USRMDL' 1  'PEGEN_H1006D' 101 1 4 61 2 70
         11111 11111 11111 11111
         0.890  6550   0.800  10.00  0.400  2.000  0.000  0.500  0.000  0.500
         1.110  6550   1.200  1.000  1.280  0.200  1.300  0.060  1.300  0.060
         49.40  6550   48.50  650.0  46.50  160.0  45.00  65.50  45.00  65.50
         50.60  6550   51.50  650.0  52.50  160.0  65.00  65.50  65.00  65.50
         50
         0.400  0.050  0.100  0.200  4.000  2.000  0.850  0.900  0.015  0.002
         0.200  0.100  0.000  0.020  0.020  0.000  0.000  0.000  0.000  0.000/

//////// CONROL MODEL 
   1181    'USRMDL' 1  'PECON_H1006D' 102 0 5 37 7 50
         1 1 2 1 0
         1.000  0.866 -0.866  1.000
         0.850  2.000  0.050  0.880
         1.200  2.000  0.050  1.200
         1.000  2.000  1.000  2.000  10.00
         0.020  0.020  0.020  0.010  0.050  1.000  0.010  1.100  1.000  0.800
         0.800  0.000  0.000  0.000  0.000  0.000  0.000  0.000  0.000  0.000/



